<?xml version="1.0" encoding="UTF-8"?>
<routes xmlns:xsi="http://www.w3.org/2001/XMLSchema-instance" xsi:noNamespaceSchemaLocation="http://sumo.dlr.de/xsd/routes_file.xsd">
    <!-- 车辆类型定义 -->
    <vType id="car" accel="2.6" decel="4.5" sigma="0.5" length="5.0" maxSpeed="50" color="1,0,0"/>
    <vType id="bus" accel="1.5" decel="3.0" sigma="0.7" length="12.0" maxSpeed="40" color="0,0,1"/>
    <vType id="truck" accel="1.3" decel="2.5" sigma="0.8" length="16.0" maxSpeed="35" color="0.5,0.5,0.5"/>

    <!-- 路线定义 -->
    <route id="route0" edges="bottom_in node0 node1 right_out"/>
    <route id="route1" edges="left_in node2 node3 top_out"/>
    <route id="route2" edges="bottom_in node0 node2 left_out"/>
    <route id="route3" edges="right_in node1 node3 top_out"/>
    <route id="route4" edges="bottom_in node0 node1 node3 top_out"/>
    <route id="route5" edges="left_in node2 node0 node1 right_out"/>
    <vehicle id="veh0" type="car" route="route4" depart="1" departLane="best"/>
    <vehicle id="veh1" type="car" route="route4" depart="6" departLane="best"/>
    <vehicle id="veh2" type="car" route="route1" depart="8" departLane="best"/>
    <vehicle id="veh3" type="bus" route="route1" depart="13" departLane="best"/>
    <vehicle id="veh4" type="car" route="route2" depart="14" departLane="best"/>
    <vehicle id="veh5" type="car" route="route0" depart="17" departLane="best"/>
    <vehicle id="veh6" type="car" route="route5" depart="22" departLane="best"/>
    <vehicle id="veh7" type="truck" route="route2" depart="24" departLane="best"/>
    <vehicle id="veh8" type="car" route="route3" depart="25" departLane="best"/>
    <vehicle id="veh9" type="car" route="route4" depart="26" departLane="best"/>
    <vehicle id="veh10" type="car" route="route4" depart="30" departLane="best"/>
    <vehicle id="veh11" type="car" route="route0" depart="31" departLane="best"/>
    <vehicle id="veh12" type="truck" route="route5" depart="36" departLane="best"/>
    <vehicle id="veh13" type="truck" route="route3" depart="37" departLane="best"/>
    <vehicle id="veh14" type="bus" route="route2" depart="41" departLane="best"/>
    <vehicle id="veh15" type="car" route="route2" depart="44" departLane="best"/>
    <vehicle id="veh16" type="car" route="route5" depart="48" departLane="best"/>
    <vehicle id="veh17" type="truck" route="route5" depart="49" departLane="best"/>
    <vehicle id="veh18" type="car" route="route1" depart="50" departLane="best"/>
    <vehicle id="veh19" type="car" route="route2" depart="53" departLane="best"/>
    <vehicle id="veh20" type="bus" route="route3" depart="55" departLane="best"/>
    <vehicle id="veh21" type="bus" route="route4" depart="57" departLane="best"/>
    <vehicle id="veh22" type="bus" route="route3" depart="59" departLane="best"/>
    <vehicle id="veh23" type="car" route="route2" depart="60" departLane="best"/>
    <vehicle id="veh24" type="car" route="route1" depart="61" departLane="best"/>
    <vehicle id="veh25" type="truck" route="route4" depart="65" departLane="best"/>
    <vehicle id="veh26" type="car" route="route0" depart="69" departLane="best"/>
    <vehicle id="veh27" type="car" route="route0" depart="74" departLane="best"/>
    <vehicle id="veh28" type="car" route="route2" depart="78" departLane="best"/>
    <vehicle id="veh29" type="car" route="route5" depart="81" departLane="best"/>
</routes>