<?xml version="1.0" encoding="UTF-8"?>
<edges xmlns:xsi="http://www.w3.org/2001/XMLSchema-instance" xsi:noNamespaceSchemaLocation="http://sumo.dlr.de/xsd/edges_file.xsd">
    <edge id="edge0" from="node0" to="node1" priority="78" numLanes="1" speed="35"/>
    <edge id="edge1" from="node1" to="node0" priority="78" numLanes="1" speed="35"/>
    <edge id="edge2" from="node1" to="node2" priority="78" numLanes="1" speed="35"/>
    <edge id="edge3" from="node2" to="node1" priority="78" numLanes="1" speed="35"/>
    <edge id="edge4" from="node2" to="node3" priority="78" numLanes="1" speed="35"/>
    <edge id="edge5" from="node3" to="node2" priority="78" numLanes="1" speed="35"/>
    <edge id="edge6" from="node4" to="node5" priority="78" numLanes="1" speed="35"/>
    <edge id="edge7" from="node5" to="node4" priority="78" numLanes="1" speed="35"/>
    <edge id="edge8" from="node5" to="node6" priority="78" numLanes="1" speed="35"/>
    <edge id="edge9" from="node6" to="node5" priority="78" numLanes="1" speed="35"/>
    <edge id="edge10" from="node6" to="node7" priority="78" numLanes="1" speed="35"/>
    <edge id="edge11" from="node7" to="node6" priority="78" numLanes="1" speed="35"/>
    <edge id="edge12" from="node8" to="node9" priority="78" numLanes="1" speed="35"/>
    <edge id="edge13" from="node9" to="node8" priority="78" numLanes="1" speed="35"/>
    <edge id="edge14" from="node9" to="node10" priority="78" numLanes="1" speed="35"/>
    <edge id="edge15" from="node10" to="node9" priority="78" numLanes="1" speed="35"/>
    <edge id="edge16" from="node10" to="node11" priority="78" numLanes="1" speed="35"/>
    <edge id="edge17" from="node11" to="node10" priority="78" numLanes="1" speed="35"/>
    <edge id="edge18" from="node12" to="node13" priority="78" numLanes="1" speed="35"/>
    <edge id="edge19" from="node13" to="node12" priority="78" numLanes="1" speed="35"/>
    <edge id="edge20" from="node13" to="node14" priority="78" numLanes="1" speed="35"/>
    <edge id="edge21" from="node14" to="node13" priority="78" numLanes="1" speed="35"/>
    <edge id="edge22" from="node14" to="node15" priority="78" numLanes="1" speed="35"/>
    <edge id="edge23" from="node15" to="node14" priority="78" numLanes="1" speed="35"/>
    <edge id="edge24" from="node0" to="node4" priority="78" numLanes="1" speed="35"/>
    <edge id="edge25" from="node4" to="node0" priority="78" numLanes="1" speed="35"/>
    <edge id="edge26" from="node4" to="node8" priority="78" numLanes="1" speed="35"/>
    <edge id="edge27" from="node8" to="node4" priority="78" numLanes="1" speed="35"/>
    <edge id="edge28" from="node8" to="node12" priority="78" numLanes="1" speed="35"/>
    <edge id="edge29" from="node12" to="node8" priority="78" numLanes="1" speed="35"/>
    <edge id="edge30" from="node1" to="node5" priority="78" numLanes="1" speed="35"/>
    <edge id="edge31" from="node5" to="node1" priority="78" numLanes="1" speed="35"/>
    <edge id="edge32" from="node5" to="node9" priority="78" numLanes="1" speed="35"/>
    <edge id="edge33" from="node9" to="node5" priority="78" numLanes="1" speed="35"/>
    <edge id="edge34" from="node9" to="node13" priority="78" numLanes="1" speed="35"/>
    <edge id="edge35" from="node13" to="node9" priority="78" numLanes="1" speed="35"/>
    <edge id="edge36" from="node2" to="node6" priority="78" numLanes="1" speed="35"/>
    <edge id="edge37" from="node6" to="node2" priority="78" numLanes="1" speed="35"/>
    <edge id="edge38" from="node6" to="node10" priority="78" numLanes="1" speed="35"/>
    <edge id="edge39" from="node10" to="node6" priority="78" numLanes="1" speed="35"/>
    <edge id="edge40" from="node10" to="node14" priority="78" numLanes="1" speed="35"/>
    <edge id="edge41" from="node14" to="node10" priority="78" numLanes="1" speed="35"/>
    <edge id="edge42" from="node3" to="node7" priority="78" numLanes="1" speed="35"/>
    <edge id="edge43" from="node7" to="node3" priority="78" numLanes="1" speed="35"/>
    <edge id="edge44" from="node7" to="node11" priority="78" numLanes="1" speed="35"/>
    <edge id="edge45" from="node11" to="node7" priority="78" numLanes="1" speed="35"/>
    <edge id="edge46" from="node11" to="node15" priority="78" numLanes="1" speed="35"/>
    <edge id="edge47" from="node15" to="node11" priority="78" numLanes="1" speed="35"/>
</edges>