<?xml version="1.0" encoding="UTF-8"?>
<nodes xmlns:xsi="http://www.w3.org/2001/XMLSchema-instance" xsi:noNamespaceSchemaLocation="http://sumo.dlr.de/xsd/nodes_file.xsd">
    <node id="node0" x="0.0" y="0.0" type="traffic_light"/>
    <node id="node1" x="0.0" y="100.0" type="traffic_light"/>
    <node id="node2" x="0.0" y="200.0" type="traffic_light"/>
    <node id="node3" x="0.0" y="300.0" type="traffic_light"/>
    <node id="node4" x="100.0" y="0.0" type="traffic_light"/>
    <node id="node5" x="100.0" y="100.0" type="traffic_light"/>
    <node id="node6" x="100.0" y="200.0" type="traffic_light"/>
    <node id="node7" x="100.0" y="300.0" type="traffic_light"/>
    <node id="node8" x="200.0" y="0.0" type="traffic_light"/>
    <node id="node9" x="200.0" y="100.0" type="traffic_light"/>
    <node id="node10" x="200.0" y="200.0" type="traffic_light"/>
    <node id="node11" x="200.0" y="300.0" type="traffic_light"/>
    <node id="node12" x="300.0" y="0.0" type="traffic_light"/>
    <node id="node13" x="300.0" y="100.0" type="traffic_light"/>
    <node id="node14" x="300.0" y="200.0" type="traffic_light"/>
    <node id="node15" x="300.0" y="300.0" type="traffic_light"/>
</nodes>